grid_simulations/tests/Result_no_control/output_current_15.csv
# Result_no_control/output_current_15.csv run at 2000-01-01 15:00:00 EST on 907 links
link_name,currA_mag,currA_angle,currB_mag,currB_angle,currC_mag,currC_angle
Source_Impedance,28.122850,-0.362152,22.649981,3.760021,24.390637,1.898202
TR1,28.122850,-0.362152,22.649981,3.760021,24.390637,1.898202
LINE1,777.168947,-0.834101,692.683175,3.314711,508.872539,1.244943
LINE2,777.168947,-0.834101,692.683175,3.314711,508.872539,1.244943
LINE3,777.168947,-0.834101,692.683175,3.314711,508.872539,1.244943
LINE4,777.168947,-0.834101,692.683175,3.314711,508.872539,1.244943
LINE5,777.168947,-0.834101,692.683175,3.314711,508.872539,1.244943
LINE6,777.168947,-0.834101,692.683175,3.314711,508.872539,1.244943
LINE7,777.168947,-0.834101,692.683175,3.314711,508.872539,1.244943
LINE8,777.168947,-0.834101,692.683175,3.314711,508.872539,1.244943
LINE9,777.168947,-0.834101,692.683175,3.314711,508.872539,1.244943
LINE10,777.168947,-0.834101,692.683175,3.314711,508.872539,1.244943
LINE11,777.168947,-0.834101,692.683175,3.314711,508.872539,1.244943
LINE12,777.168947,-0.834101,692.683175,3.314711,508.872539,1.244943
LINE13,777.168947,-0.834101,692.683175,3.314711,508.872539,1.244943
LINE14,777.168947,-0.834101,692.683175,3.314711,508.872539,1.244943
LINE15,0.000000,-0.787078,0.000000,4.079655,0.000000,1.577104
LINE16,777.168947,-0.834101,692.683175,3.314711,508.872539,1.244943
LINE17,0.000000,-0.743762,0.000000,3.960815,0.000000,1.584907
LINE18,777.168947,-0.834101,692.683175,3.314711,508.872539,1.244943
LINE19,0.000000,-0.743762,0.000000,3.978831,0.000000,3.116661
LINE20,777.168947,-0.834101,692.683175,3.314711,508.872539,1.244943
LINE21,0.000000,-0.952227,0.000000,4.687457,0.000000,3.116661
LINE22,777.168947,-0.834101,692.683175,3.314711,508.872539,1.244943
LINE23,0.000000,-1.007726,0.000000,-1.398333,0.000000,4.708287
LINE24,777.168947,-0.834101,692.683175,3.314711,508.872539,1.244943
LINE25,0.000000,-0.966932,0.000000,4.365707,0.000000,1.514625
LINE26,65.923419,-0.863656,0.000000,3.453207,0.000000,1.511341
LINE27,711.276986,-0.831362,692.683175,3.314711,508.872539,1.244943
LINE28,0.000000,-0.966932,0.000000,4.507604,0.000000,1.561488
LINE29,32.958109,-0.863683,0.000000,-0.042220,0.000000,1.587932
LINE30,32.965311,-0.863629,0.000000,3.453732,0.000000,1.515201
LINE31,711.276986,-0.831362,692.683175,3.314711,508.872539,1.244943
LINE32,0.000000,-0.861134,0.000000,4.384572,0.000000,1.574502
LINE33,32.958109,-0.863683,0.000000,0.578111,0.000000,-1.522088
LINE34,32.965311,-0.863629,0.000000,3.602389,0.000000,1.614218
LINE35,0.000000,-1.238489,66.941055,3.319006,0.000000,1.091841
LINE36,711.276986,-0.831362,625.742803,3.314251,508.872539,1.244943
LINE37,0.000000,-0.847350,0.000000,4.490062,0.000000,1.590973
LINE38,32.965311,-0.863629,0.000000,3.873445,0.000000,1.550847
LINE39,0.000000,-1.276623,33.471315,3.319012,0.000000,1.202889
LINE40,0.000000,2.862023,33.469740,3.319000,0.000000,-1.528678
LINE41,711.276986,-0.831362,625.742803,3.314251,508.872539,1.244943
LINE42,0.000000,2.537234,0.000000,-1.201196,0.000000,4.249137
LINE43,0.000000,-1.132081,0.000000,4.687457,0.000000,1.577104
LINE44,32.965311,-0.863629,0.000000,3.399084,0.000000,1.464747
LINE45,0.000000,4.571273,33.471315,3.319012,0.000000,0.637605
LINE46,0.000000,3.002615,33.469740,3.319000,0.000000,0.021420
LINE47,711.276986,-0.831362,625.742803,3.314251,508.872539,1.244943
LINE48,0.000000,3.308887,0.000000,-1.043176,0.000000,4.224276
LINE49,0.000000,4.687457,0.000000,-0.719670,0.000000,1.577104
LINE50,32.965311,-0.863629,0.000000,2.802798,0.000000,1.455021
LINE51,0.000000,3.975150,33.471315,3.319012,0.000000,-1.535762
LINE52,711.276986,-0.831362,625.742803,3.314251,508.872539,1.244943
LINE53,0.000000,3.223184,0.000000,4.697930,0.000000,4.439424
LINE54,0.000000,3.322931,0.000000,-0.771861,0.000000,4.240009
LINE55,0.000000,3.902059,0.000000,-0.699673,0.000000,1.608283
LINE56,32.965311,-0.863629,0.000000,2.094813,0.000000,-1.444108
LINE57,0.000000,4.692978,33.471315,3.319012,0.000000,1.653470
LINE58,711.276986,-0.831362,625.742803,3.314251,508.872539,1.244943
LINE59,0.000000,2.989176,0.000000,4.452994,0.000000,4.510930
LINE60,0.000000,-1.070636,0.000000,4.558128,0.000000,4.112916
LINE61,0.000000,4.687457,0.000000,-0.612935,0.000000,1.608283
LINE62,32.965311,-0.863629,0.000000,0.660752,0.000000,4.652445
LINE63,0.000000,4.614783,33.471315,3.319012,0.000000,1.550038
LINE64,641.926391,-0.829282,625.742803,3.314251,508.872539,1.244943
LINE65,69.364837,-0.850613,0.000000,0.518786,0.000000,4.699605
LINE66,0.000000,2.728869,0.000000,-0.324272,0.000000,4.343470
LINE67,0.000000,-0.624581,0.000000,-0.889510,0.000000,2.705447
LINE68,0.000000,4.099454,0.000000,-1.215222,0.000000,3.116661
LINE69,32.965311,-0.863629,0.000000,2.917881,0.000000,1.704393
LINE70,0.000000,3.369194,33.471315,3.319012,0.000000,4.700227
LINE71,641.926391,-0.829282,625.742803,3.314251,508.872539,1.244943
LINE72,34.682418,-0.850613,0.000000,-0.171372,0.000000,4.696747
LINE73,34.682418,-0.850613,0.000000,-0.171356,0.000000,4.526791
LINE74,0.000000,2.747140,0.000000,-0.641473,0.000000,1.927308
LINE75,0.000000,4.681669,0.000000,-0.700826,0.000000,2.842027
LINE76,0.000000,3.798977,0.000000,-1.048939,0.000000,4.630228
LINE77,0.000000,1.553468,33.471315,3.319012,0.000000,-1.493150
LINE78,641.926391,-0.829282,625.742803,3.314251,508.872539,1.244943
LINE79,0.000000,2.786499,0.000000,-0.200849,0.000000,0.986572
LINE80,0.000000,-1.491697,0.000000,-0.792888,0.000000,2.839853
LINE81,0.000000,3.760162,0.000000,-1.069662,0.000000,4.649975
LINE82,0.000000,0.065397,33.471315,3.319012,0.000000,1.624315
LINE83,641.926391,-0.829282,625.742803,3.314251,508.872539,1.244943
LINE84,0.000000,2.733784,0.000000,0.259740,0.000000,4.366188
LINE85,0.000000,-1.503079,0.000000,-0.774884,0.000000,2.966823
LINE86,0.000000,3.992719,0.000000,-1.197206,0.000000,4.617260
LINE87,641.926391,-0.829282,625.742803,3.314251,508.872539,1.244943
LINE88,0.000000,0.000000,0.000000,0.000000,0.000000,0.000000
LINE89,0.000000,-1.535726,0.000000,-0.770289,0.000000,2.520154
LINE90,0.000000,3.902059,0.000000,-1.317429,0.000000,3.116661
LINE91,641.926391,-0.829282,625.742803,3.314251,508.872539,1.244943
LINE92,0.000000,3.105636,0.000000,-0.327192,0.000000,2.611540
LINE93,0.000000,3.361639,0.000000,-0.488580,0.000000,4.625038
LINE94,641.926391,-0.829282,625.742803,3.314251,508.872539,1.244943
LINE95,0.000000,1.477451,0.000000,-0.799307,0.000000,3.486052
LINE96,0.000000,2.331263,0.000000,-0.024932,0.000000,4.656217
LINE97,641.926391,-0.829282,625.742803,3.314251,508.872539,1.244943
LINE98,0.000000,2.992910,0.000000,-0.773802,0.000000,3.878904
LINE99,0.000000,3.116661,0.000000,0.438716,0.000000,0.000000
LINE100,641.926391,-0.829282,625.742803,3.314251,508.872539,1.244943
LINE101,0.000000,3.933079,0.000000,-1.314921,0.000000,2.124036
LINE102,0.000000,0.000000,0.000000,0.000000,0.000000,0.000000
LINE103,35.297722,-0.846216,105.408099,3.319892,66.774943,1.241667
LINE104,606.634024,-0.828296,520.336721,3.313109,442.098008,1.245438
LINE105,0.000000,3.752743,0.000000,-1.100504,0.000000,1.984617
LINE106,35.297722,-0.846216,105.408099,3.319892,66.774943,1.241667
LINE107,606.634024,-0.828296,520.336721,3.313109,442.098008,1.245438
LINE108,0.000000,3.721006,0.000000,-1.037476,0.000000,1.966124
LINE109,35.297722,-0.846216,105.408099,3.319892,66.774943,1.241667
LINE110,606.634024,-0.828296,520.336721,3.313109,442.098008,1.245438
LINE111,0.000000,3.728357,0.000000,-1.050081,0.000000,2.059857
LINE112,35.297722,-0.846216,105.408099,3.319892,66.774943,1.241667
LINE113,606.634024,-0.828296,520.336721,3.313109,442.098008,1.245438
LINE114,0.000000,3.721990,0.000000,-1.055688,0.000000,2.056633
LINE115,35.297722,-0.846216,105.408099,3.319892,66.774943,1.241667
LINE116,35.694762,-0.843860,70.854950,3.320163,67.148614,1.243201
LINE117,570.943855,-0.827323,449.483812,3.311997,374.949592,1.245839
LINE118,0.000000,3.770884,0.000000,-1.018596,0.000000,2.058358
LINE119,35.297722,-0.846216,105.408099,3.319892,66.774943,1.241667
LINE120,0.000000,2.704250,0.000000,0.074737,0.000000,4.697873
LINE121,35.694762,-0.843860,70.854950,3.320163,67.148614,1.243201
LINE122,570.943855,-0.827323,449.483812,3.311997,374.949592,1.245839
LINE123,0.000000,4.052582,0.000000,-1.100018,0.000000,1.958226
LINE124,35.297722,-0.846216,105.408099,3.319892,66.774943,1.241667
LINE125,0.000000,2.545323,0.000000,-0.124601,0.000000,4.696832
LINE126,35.694762,-0.843860,70.854950,3.320163,67.148614,1.243201
LINE127,570.943855,-0.827323,449.483812,3.311997,374.949592,1.245839
LINE128,0.000000,4.042949,0.000000,-1.005511,0.000000,1.915067
LINE129,35.297722,-0.846216,105.408099,3.319892,66.774943,1.241667
LINE130,0.000000,2.331263,0.000000,-0.024932,0.000000,4.706986
LINE131,35.694762,-0.843860,0.000000,3.174339,0.000000,1.606769
LINE132,0.000000,-0.820874,70.854950,3.320163,67.148614,1.243201
LINE133,570.943855,-0.827323,449.483812,3.311997,374.949592,1.245839
LINE134,0.000000,4.073119,0.000000,-1.013568,0.000000,1.954517
LINE135,35.297722,-0.846216,105.408099,3.319892,66.774943,1.241667
LINE136,0.000000,2.441920,0.000000,-0.190081,0.000000,4.695269
LINE137,35.694762,-0.843860,0.000000,3.179494,0.000000,1.603853
LINE138,0.000000,-0.815924,70.854950,3.320163,67.148614,1.243201
LINE139,570.943855,-0.827323,449.483812,3.311997,374.949592,1.245839
LINE140,0.000000,4.056219,0.000000,-1.002390,0.000000,1.938638
LINE141,35.297722,-0.846216,105.408099,3.319892,66.774943,1.241667
LINE142,0.000000,2.604271,0.000000,-0.024932,0.000000,4.679645
LINE143,35.694762,-0.843860,0.000000,3.135772,0.000000,1.608324
LINE144,0.000000,-0.796939,70.854950,3.320163,67.148614,1.243201
LINE145,570.943855,-0.827323,449.483812,3.311997,374.949592,1.245839
LINE146,0.000000,4.153307,0.000000,-0.959018,0.000000,2.241570
LINE147,35.297722,-0.846216,105.408099,3.319892,66.774943,1.241667
LINE148,0.000000,2.496411,0.000000,-0.024932,0.000000,4.656217
LINE149,35.694762,-0.843860,0.000000,3.085735,0.000000,1.606956
LINE150,0.000000,-0.793871,0.000000,-0.704407,67.148614,1.243201
LINE151,0.000000,-1.556079,70.854950,3.320163,0.000000,-1.520290
LINE152,570.943855,-0.827323,449.483812,3.311997,374.949592,1.245839
LINE153,0.000000,-1.076019,0.000000,-1.569663,0.000000,3.231654
LINE154,35.297722,-0.846216,105.408099,3.319892,66.774943,1.241667
LINE155,0.000000,2.597515,0.000000,0.000000,0.000000,1.685573
LINE156,35.694762,-0.843860,0.000000,3.084683,0.000000,1.595221
LINE157,0.000000,-0.795213,0.000000,-0.704981,67.148614,1.243201
LINE158,0.000000,-0.926801,70.854950,3.320163,0.000000,-1.552908
LINE159,570.943855,-0.827323,449.483812,3.311997,374.949592,1.245839
LINE160,0.000000,-1.017970,0.000000,4.346661,0.000000,4.257833
LINE161,0.000000,2.599276,35.039573,3.319659,0.000000,1.436617
LINE162,35.297722,-0.846216,70.368528,3.320007,66.774943,1.241667
LINE163,0.000000,2.441920,0.000000,1.545864,0.000000,4.664024
LINE164,35.694762,-0.843860,0.000000,3.090726,0.000000,1.605965
LINE165,0.000000,-0.794757,0.000000,-0.704718,67.148614,1.243201
LINE166,0.000000,4.624365,70.854950,3.320163,0.000000,-1.543052
LINE167,570.943855,-0.827323,449.483812,3.311997,374.949592,1.245839
LINE168,0.000000,-0.291345,0.000000,2.571901,0.000000,1.327651
LINE169,0.000000,2.088816,35.039573,3.319659,0.000000,1.751216
LINE170,35.297722,-0.846216,70.368528,3.320007,66.774943,1.241667
LINE171,0.000000,2.473160,0.000000,0.000000,0.000000,4.664024
LINE172,35.694762,-0.843860,0.000000,3.073345,0.000000,1.608649
LINE173,0.000000,-0.909501,0.000000,-0.654122,0.000000,-1.019131
LINE174,0.000000,-0.145145,0.000000,-1.146250,67.148614,1.243201
LINE175,0.000000,3.759191,70.854950,3.320163,0.000000,-1.534966
LINE176,570.943855,-0.827323,449.483812,3.311997,374.949592,1.245839
LINE177,0.000000,3.525827,35.039573,3.319659,0.000000,1.369713
LINE178,35.297722,-0.846216,70.368528,3.320007,0.000000,1.880138
LINE179,0.000000,0.117832,0.000000,3.850574,66.774943,1.241667
LINE180,0.000000,2.473160,0.000000,3.281809,0.000000,4.703081
LINE181,35.694762,-0.843860,0.000000,3.073377,0.000000,1.618540
LINE182,0.000000,-0.938832,0.000000,-0.647957,0.000000,-0.968844
LINE183,0.000000,-0.172099,0.000000,-1.000259,67.148614,1.243201
LINE184,0.000000,4.362593,70.854950,3.320163,0.000000,4.699002
LINE185,570.943855,-0.827323,449.483812,3.311997,374.949592,1.245839
LINE186,35.297722,-0.846216,70.368528,3.320007,0.000000,2.058608
LINE187,0.000000,0.120872,0.000000,3.857267,66.774943,1.241667
LINE188,0.000000,2.331263,0.000000,3.902059,0.000000,4.695269
LINE189,35.694762,-0.843860,0.000000,3.079262,0.000000,1.622605
LINE190,0.000000,1.479166,0.000000,-0.224843,0.000000,4.476265
LINE191,0.000000,-1.044241,0.000000,-1.027731,0.000000,-0.744752
LINE192,0.000000,-0.158571,0.000000,-1.141546,67.148614,1.243201
LINE193,0.000000,4.058658,70.854950,3.320163,0.000000,4.702801
LINE194,570.943855,-0.827323,449.483812,3.311997,374.949592,1.245839
LINE195,35.297722,-0.846216,70.368528,3.320007,0.000000,2.094109
LINE196,0.000000,2.776322,0.000000,0.238107,33.383920,1.241641
LINE197,0.000000,0.130922,0.000000,3.772586,33.391024,1.241694
LINE198,0.000000,2.951512,0.000000,-0.024932,0.000000,-1.564488
LINE199,35.694762,-0.843860,0.000000,3.120048,0.000000,1.612223
LINE200,0.000000,2.857127,0.000000,3.757764,0.000000,-0.431656
LINE201,0.000000,-0.958016,0.000000,-1.416497,0.000000,-0.575750
LINE202,0.000000,-0.073024,0.000000,-0.908363,67.148614,1.243201
LINE203,0.000000,4.064230,70.854950,3.320163,0.000000,4.690631
LINE204,570.943855,-0.827323,449.483812,3.311997,374.949592,1.245839
LINE205,35.297722,-0.846216,0.000000,0.085187,0.000000,1.866190
LINE206,0.000000,1.590754,70.368528,3.320007,0.000000,2.091434
LINE207,0.000000,2.332589,0.000000,4.226471,33.383920,1.241641
LINE208,0.000000,0.172339,0.000000,3.637743,33.391024,1.241694
LINE209,0.000000,3.116661,0.000000,-0.269911,0.000000,4.695269
LINE210,35.694762,-0.843860,0.000000,3.123333,0.000000,1.609655
LINE211,0.000000,-1.460425,0.000000,4.195488,0.000000,-0.935417
LINE212,0.000000,-0.095593,0.000000,-0.751971,67.148614,1.243201
LINE213,0.000000,3.544606,70.854950,3.320163,0.000000,-1.568097
LINE214,570.943855,-0.827323,449.483812,3.311997,374.949592,1.245839
LINE215,35.297722,-0.846216,0.000000,0.331043,0.000000,1.917536
LINE216,0.000000,1.663113,70.368528,3.320007,0.000000,2.011817
LINE217,0.000000,0.033728,0.000000,4.108505,33.391024,1.241694
LINE218,0.000000,0.000000,0.000000,0.000000,0.000000,0.000000
LINE219,35.694762,-0.843860,0.000000,3.136606,0.000000,1.610530
LINE220,0.000000,-1.472614,0.000000,-1.233629,0.000000,-0.867966
LINE221,0.000000,-0.151638,0.000000,-0.776058,67.148614,1.243201
LINE222,0.000000,3.591008,70.854950,3.320163,0.000000,-1.570467
LINE223,570.943855,-0.827323,449.483812,3.311997,374.949592,1.245839
LINE224,35.297722,-0.846216,0.000000,-0.202234,0.000000,-0.707465
LINE225,0.000000,1.307663,70.368528,3.320007,0.000000,2.548003
LINE226,0.000000,0.414960,0.000000,4.050747,33.391024,1.241694
LINE227,35.694762,-0.843860,0.000000,3.120134,0.000000,1.622636
LINE228,0.000000,4.664134,0.000000,-0.780338,0.000000,-0.905578
LINE229,0.000000,-0.213280,0.000000,-0.742129,67.148614,1.243201
LINE230,0.000000,3.786344,70.854950,3.320163,0.000000,-1.559856
LINE231,570.943855,-0.827323,449.483812,3.311997,374.949592,1.245839
LINE232,0.000000,0.362843,70.368528,3.320007,0.000000,1.424722
LINE233,0.000000,1.176126,0.000000,-0.128619,0.000000,2.173889
LINE234,0.000000,-0.099365,0.000000,3.635817,33.391024,1.241694
LINE235,35.694762,-0.843860,0.000000,3.265759,0.000000,1.608676
LINE236,0.000000,4.561048,0.000000,-0.117220,0.000000,-0.456668
LINE237,0.000000,-0.277708,0.000000,-0.782910,67.148614,1.243201
LINE238,0.000000,3.693709,70.854950,3.320163,0.000000,-1.499938
LINE239,570.943855,-0.827323,449.483812,3.311997,374.949592,1.245839
LINE240,0.000000,1.479738,70.368528,3.320007,0.000000,1.431108
LINE241,0.000000,0.218195,0.000000,4.014354,33.391024,1.241694
LINE242,35.694762,-0.843860,0.000000,3.094072,0.000000,1.625771
LINE243,0.000000,-1.229818,0.000000,2.040612,0.000000,0.032157
LINE244,0.000000,-0.369923,0.000000,-1.076487,67.148614,1.243201
LINE245,0.000000,3.640356,70.854950,3.320163,0.000000,-1.494629
LINE246,570.943855,-0.827323,449.483812,3.311997,374.949592,1.245839
LINE247,0.000000,0.083138,35.184264,3.320007,0.000000,1.564484
LINE248,0.000000,0.083354,35.184264,3.320007,0.000000,1.535857
LINE249,0.000000,-0.163884,0.000000,1.905892,33.391024,1.241694
LINE250,35.694762,-0.843860,0.000000,3.217115,0.000000,1.674754
LINE251,0.000000,-1.441336,0.000000,0.593142,0.000000,-0.148710
LINE252,0.000000,-0.288023,0.000000,-0.851060,67.148614,1.243201
LINE253,0.000000,3.712016,70.854950,3.320163,0.000000,-1.489595
LINE254,36.586535,-0.840286,0.000000,2.645180,0.000000,4.648550
LINE255,534.360605,-0.826436,449.483812,3.311997,374.949592,1.245839
LINE256,0.000000,4.072716,0.000000,-0.839982,33.391024,1.241694
LINE257,35.694762,-0.843860,0.000000,3.710276,0.000000,1.573799
LINE258,0.000000,0.452269,0.000000,0.452269,0.000000,1.495196
LINE259,0.000000,-0.277159,0.000000,-0.788335,67.148614,1.243201
LINE260,0.000000,3.666706,70.854950,3.320163,0.000000,-1.479926
LINE261,36.586535,-0.840286,0.000000,2.716536,0.000000,4.647258
LINE262,534.360605,-0.826436,449.483812,3.311997,374.949592,1.245839
LINE263,0.000000,-0.071581,0.000000,1.083918,33.391024,1.241694
LINE264,35.694762,-0.843860,0.000000,1.012827,0.000000,1.552968
LINE265,0.000000,-0.839996,0.000000,2.730281,0.000000,1.577515
LINE266,0.000000,-0.271785,0.000000,-0.762195,67.148614,1.243201
LINE267,0.000000,0.233677,35.434146,3.320209,0.000000,1.199146
LINE268,0.000000,3.788797,35.420804,3.320116,0.000000,4.667120
LINE269,36.586535,-0.840286,0.000000,2.892218,0.000000,4.655355
LINE270,0.000000,-0.598361,0.000000,1.990649,33.803210,1.246114
LINE271,534.360605,-0.826436,449.483812,3.311997,341.146384,1.245812
LINE272,35.694762,-0.843860,0.000000,0.053861,0.000000,1.526030
LINE273,0.000000,-0.029793,0.000000,1.324963,0.000000,3.839361
LINE274,0.000000,-0.356368,0.000000,-0.723982,67.148614,1.243201
LINE275,0.000000,1.250536,35.434146,3.320209,0.000000,-1.078930
LINE276,0.000000,4.244310,35.420804,3.320116,0.000000,-1.556665
LINE277,36.586535,-0.840286,0.000000,2.664218,0.000000,4.663075
LINE278,0.000000,-0.544278,0.000000,1.798994,33.803210,1.246114
LINE279,534.360605,-0.826436,449.483812,3.311997,341.146384,1.245812
LINE280,35.694762,-0.843860,0.000000,0.831515,0.000000,4.706502
LINE281,0.000000,0.479682,0.000000,3.729233,0.000000,1.977062
LINE282,0.000000,-0.730973,0.000000,-0.650085,67.148614,1.243201
LINE283,0.000000,4.359824,35.420804,3.320116,0.000000,-1.267411
LINE284,36.586535,-0.840286,0.000000,2.539802,0.000000,4.668310
LINE285,0.000000,-0.569396,0.000000,3.438475,33.803210,1.246114
LINE286,267.388118,-0.824760,149.186152,3.306942,67.422284,1.247446
LINE287,266.973238,-0.828114,300.300512,3.314508,273.724212,1.245409
LINE288,35.694762,-0.843860,0.000000,3.018478,0.000000,1.549757
LINE289,0.000000,1.725639,0.000000,-0.203103,0.000000,0.445923
LINE290,0.000000,4.164328,0.000000,-0.580245,33.584644,1.243277
LINE291,0.000000,3.899044,0.000000,-0.983981,33.563970,1.243125
LINE292,0.000000,3.552285,35.420804,3.320116,0.000000,-1.554562
LINE293,36.586535,-0.840286,0.000000,2.941038,0.000000,4.674979
LINE294,0.000000,-0.487388,0.000000,4.046567,33.803210,1.246114
LINE295,267.388118,-0.824760,149.186152,3.306942,67.422284,1.247446
LINE296,266.973238,-0.828114,300.300512,3.314508,273.724212,1.245409
LINE297,0.000000,-0.640482,0.000000,3.569415,33.584644,1.243277
LINE298,0.000000,-0.946656,0.000000,4.416301,33.563970,1.243125
LINE299,0.000000,1.366688,35.420804,3.320116,0.000000,-1.330138
LINE300,36.586535,-0.840286,0.000000,3.050764,0.000000,4.679780
LINE301,0.000000,-0.452848,0.000000,3.450581,33.803210,1.246114
LINE302,267.388118,-0.824760,149.186152,3.306942,67.422284,1.247446
LINE303,266.973238,-0.828114,300.300512,3.314508,273.724212,1.245409
LINE304,0.000000,-0.446936,0.000000,3.901373,33.584644,1.243277
LINE305,0.000000,2.640856,0.000000,-0.193120,33.563970,1.243125
LINE306,0.000000,2.285352,35.420804,3.320116,0.000000,-1.444551
LINE307,36.586535,-0.840286,0.000000,3.270663,0.000000,4.683192
LINE308,0.000000,-0.428006,0.000000,3.306594,33.803210,1.246114
LINE309,267.388118,-0.824760,149.186152,3.306942,67.422284,1.247446
LINE310,266.973238,-0.828114,300.300512,3.314508,273.724212,1.245409
LINE311,0.000000,3.903517,0.000000,0.176778,33.584644,1.243277
LINE312,0.000000,2.499280,0.000000,-0.190280,33.563970,1.243125
LINE313,0.000000,2.610270,35.420804,3.320116,0.000000,1.489807
LINE314,36.586535,-0.840286,0.000000,3.350651,0.000000,4.679782
LINE315,0.000000,-0.765965,0.000000,3.143097,33.803210,1.246114
LINE316,74.320172,-0.836457,0.000000,2.054835,0.000000,4.634544
LINE317,193.074987,-0.820258,149.186152,3.306942,67.422284,1.247446
LINE318,266.973238,-0.828114,300.300512,3.314508,273.724212,1.245409
LINE319,0.000000,0.288367,0.000000,3.256254,33.584644,1.243277
LINE320,0.000000,3.056487,0.000000,-0.064961,33.563970,1.243125
LINE321,36.586535,-0.840286,0.000000,3.373531,0.000000,4.681103
LINE322,0.000000,-0.476530,0.000000,2.066995,33.803210,1.246114
LINE323,74.320172,-0.836457,0.000000,2.031137,0.000000,4.627192
LINE324,193.074987,-0.820258,149.186152,3.306942,67.422284,1.247446
LINE325,266.973238,-0.828114,300.300512,3.314508,273.724212,1.245409
LINE326,0.000000,0.400713,0.000000,2.359711,33.563970,1.243125
LINE327,36.586535,-0.840286,0.000000,3.326791,0.000000,4.681898
LINE328,0.000000,4.478192,0.000000,4.478192,33.803210,1.246114
LINE329,74.320172,-0.836457,0.000000,1.890837,0.000000,4.622432
LINE330,0.000000,4.493453,0.000000,2.812565,33.796142,1.247605
LINE331,193.074987,-0.820258,149.186152,3.306942,33.626143,1.247286
LINE332,266.973238,-0.828114,300.300512,3.314508,273.724212,1.245409
LINE333,36.586535,-0.840286,0.000000,3.567192,0.000000,4.678810
LINE334,0.000000,-1.010479,0.000000,0.403207,33.803210,1.246114
LINE335,74.320172,-0.836457,0.000000,1.978156,0.000000,4.618962
LINE336,0.000000,2.387554,0.000000,-0.300210,33.796142,1.247605
LINE337,0.000000,0.769607,36.473040,3.311111,0.000000,2.577816
LINE338,193.074987,-0.820258,112.713532,3.305593,33.626143,1.247286
LINE339,266.973238,-0.828114,300.300512,3.314508,273.724212,1.245409
LINE340,36.586535,-0.840286,0.000000,3.484060,0.000000,4.670210
LINE341,0.000000,3.725491,0.000000,2.935530,33.803210,1.246114
LINE342,37.147784,-0.836539,0.000000,0.565660,0.000000,1.451702
LINE343,37.172388,-0.836376,0.000000,2.401245,0.000000,4.622169
LINE344,0.000000,0.768040,36.473040,3.311111,0.000000,2.536455
LINE345,193.074987,-0.820258,112.713532,3.305593,33.626143,1.247286
LINE346,266.973238,-0.828114,300.300512,3.314508,273.724212,1.245409
LINE347,36.586535,-0.840286,0.000000,3.427688,0.000000,4.674018
LINE348,37.147784,-0.836539,0.000000,3.195898,0.000000,4.111745
LINE349,37.172388,-0.836376,0.000000,2.527868,0.000000,4.612319
LINE350,0.000000,0.709748,36.473040,3.311111,0.000000,3.286034
LINE351,193.074987,-0.820258,112.713532,3.305593,33.626143,1.247286
LINE352,266.973238,-0.828114,300.300512,3.314508,273.724212,1.245409
LINE353,36.586535,-0.840286,0.000000,2.920744,0.000000,4.680814
LINE354,37.172388,-0.836376,0.000000,2.744908,0.000000,-1.421903
LINE355,0.000000,1.093643,36.473040,3.311111,0.000000,3.921544
LINE356,193.074987,-0.820258,112.713532,3.305593,33.626143,1.247286
LINE357,266.973238,-0.828114,300.300512,3.314508,273.724212,1.245409
LINE358,36.586535,-0.840286,0.000000,4.013227,0.000000,4.684634
LINE359,37.172388,-0.836376,0.000000,3.744012,0.000000,1.690792
LINE360,0.000000,2.160694,36.473040,3.311111,0.000000,4.458488
LINE361,193.074987,-0.820258,112.713532,3.305593,33.626143,1.247286
LINE362,266.973238,-0.828114,300.300512,3.314508,273.724212,1.245409
LINE363,36.586535,-0.840286,0.000000,-1.351748,0.000000,4.704775
LINE364,37.172388,-0.836376,0.000000,3.491493,0.000000,1.951761
LINE365,0.000000,2.877373,36.473040,3.311111,0.000000,4.564608
LINE366,193.074987,-0.820258,112.713532,3.305593,33.626143,1.247286
LINE367,266.973238,-0.828114,300.300512,3.314508,273.724212,1.245409
LINE368,36.586535,-0.840286,0.000000,3.836366,0.000000,4.424880
LINE369,37.172388,-0.836376,0.000000,2.592783,0.000000,1.589102
LINE370,0.000000,3.449965,36.473040,3.311111,0.000000,4.658445
LINE371,193.074987,-0.820258,112.713532,3.305593,33.626143,1.247286
LINE372,266.973238,-0.828114,300.300512,3.314508,273.724212,1.245409
LINE373,36.586535,-0.840286,0.000000,3.429731,0.000000,4.682242
LINE374,37.172388,-0.836376,0.000000,2.104737,0.000000,4.530881
LINE375,0.000000,3.298918,36.473040,3.311111,0.000000,4.686379
LINE376,193.074987,-0.820258,112.713532,3.305593,33.626143,1.247286
LINE377,266.973238,-0.828114,300.300512,3.314508,239.754519,1.245243
LINE378,0.000000,4.688226,0.000000,3.407184,33.969719,1.246581
LINE379,36.586535,-0.840286,0.000000,-0.344092,0.000000,-1.539286
LINE380,37.172388,-0.836376,0.000000,0.931157,0.000000,4.678163
LINE381,0.000000,3.170575,36.473040,3.311111,0.000000,4.695692
LINE382,193.074987,-0.820258,112.713532,3.305593,33.626143,1.247286
LINE383,266.973238,-0.828114,300.300512,3.314508,239.754519,1.245243
LINE384,0.000000,-1.109636,0.000000,3.536654,33.969719,1.246581
LINE385,0.000000,4.150706,0.000000,0.965265,0.000000,-1.524839
LINE386,36.586535,-0.840286,0.000000,3.247704,0.000000,-1.540408
LINE387,37.172388,-0.836376,0.000000,-0.015054,0.000000,2.210391
LINE388,0.000000,3.570860,36.473040,3.311111,0.000000,-1.505938
LINE389,193.074987,-0.820258,112.713532,3.305593,33.626143,1.247286
LINE390,266.973238,-0.828114,300.300512,3.314508,239.754519,1.245243
LINE391,0.000000,-1.072352,0.000000,3.540671,33.969719,1.246581
LINE392,0.000000,4.197203,0.000000,1.162100,0.000000,-1.528549
LINE393,0.000000,3.152066,36.473040,3.311111,0.000000,1.475718
LINE394,193.074987,-0.820258,112.713532,3.305593,33.626143,1.247286
LINE395,0.000000,-0.380389,0.000000,0.270388,68.165120,1.246755
LINE396,266.973238,-0.828114,300.300512,3.314508,171.589508,1.244642
LINE397,0.000000,-1.153349,0.000000,3.568877,33.969719,1.246581
LINE398,0.000000,4.165843,0.000000,1.475541,0.000000,-1.532325
LINE399,0.000000,-0.909195,36.473040,3.311111,0.000000,1.201452
LINE400,193.074987,-0.820258,112.713532,3.305593,33.626143,1.247286
LINE401,0.000000,-0.427969,0.000000,0.201123,68.165120,1.246755
LINE402,266.973238,-0.828114,300.300512,3.314508,171.589508,1.244642
LINE403,0.000000,4.425338,0.000000,3.352398,33.969719,1.246581
LINE404,0.000000,4.641431,0.000000,2.967925,0.000000,-1.547416
LINE405,0.000000,1.400324,36.473040,3.311111,0.000000,1.399062
LINE406,193.074987,-0.820258,112.713532,3.305593,33.626143,1.247286
LINE407,0.000000,-0.471848,0.000000,0.473451,68.165120,1.246755
LINE408,266.973238,-0.828114,300.300512,3.314508,171.589508,1.244642
LINE409,0.000000,-0.850378,0.000000,3.103029,0.000000,1.654712
LINE410,0.000000,3.590741,0.000000,3.306607,33.969719,1.246581
LINE411,0.000000,4.641978,0.000000,2.559152,0.000000,-1.432472
LINE412,193.074987,-0.820258,112.713532,3.305593,33.626143,1.247286
LINE413,0.000000,-0.241226,0.000000,0.551748,68.165120,1.246755
LINE414,266.973238,-0.828114,300.300512,3.314508,171.589508,1.244642
LINE415,0.000000,-0.818940,0.000000,3.142491,0.000000,1.700966
LINE416,0.000000,3.987450,0.000000,3.217178,33.969719,1.246581
LINE417,0.000000,4.635325,0.000000,1.495697,0.000000,-1.515719
LINE418,193.074987,-0.820258,112.713532,3.305593,33.626143,1.247286
LINE419,0.000000,-0.152382,0.000000,1.040411,68.165120,1.246755
LINE420,266.973238,-0.828114,300.300512,3.314508,171.589508,1.244642
LINE421,0.000000,-0.914659,0.000000,2.981563,0.000000,1.670463
LINE422,0.000000,3.172588,0.000000,3.132172,33.969719,1.246581
LINE423,0.000000,4.301646,0.000000,2.530840,0.000000,-1.492862
LINE424,193.074987,-0.820258,112.713532,3.305593,33.626143,1.247286
LINE425,0.000000,2.939912,0.000000,2.939912,0.000000,-0.145406
LINE426,0.000000,-0.118171,0.000000,0.781000,68.165120,1.246755
LINE427,266.973238,-0.828114,300.300512,3.314508,171.589508,1.244642
LINE428,0.000000,-0.808823,0.000000,3.021556,0.000000,1.674114
LINE429,0.000000,2.963293,0.000000,2.880148,33.969719,1.246581
LINE430,0.000000,4.361128,0.000000,2.485674,0.000000,-1.480279
LINE431,193.074987,-0.820258,112.713532,3.305593,33.626143,1.247286
LINE432,0.000000,4.618512,0.000000,1.384739,0.000000,4.604758
LINE433,0.000000,-0.120502,0.000000,0.889874,68.165120,1.246755
LINE434,266.973238,-0.828114,300.300512,3.314508,171.589508,1.244642
LINE435,0.000000,-0.821384,0.000000,2.980388,0.000000,1.649437
LINE436,0.000000,3.893278,0.000000,3.865845,33.969719,1.246581
LINE437,0.000000,4.649689,0.000000,2.573004,0.000000,-1.518909
LINE438,193.074987,-0.820258,112.713532,3.305593,33.626143,1.247286
LINE439,0.000000,-0.201681,0.000000,-0.201681,0.000000,2.996186
LINE440,0.000000,-0.082014,0.000000,1.045887,68.165120,1.246755
LINE441,266.973238,-0.828114,300.300512,3.314508,171.589508,1.244642
LINE442,0.000000,-0.825563,0.000000,2.921912,0.000000,1.732941
LINE443,0.000000,3.680181,0.000000,-1.327229,33.969719,1.246581
LINE444,0.000000,4.409403,0.000000,2.729308,0.000000,-1.385236
LINE445,193.074987,-0.820258,112.713532,3.305593,33.626143,1.247286
LINE446,0.000000,-0.201681,0.000000,-0.201681,0.000000,2.996186
LINE447,0.000000,-0.132315,0.000000,0.869992,68.165120,1.246755
LINE448,266.973238,-0.828114,300.300512,3.314508,171.589508,1.244642
LINE449,0.000000,-0.687770,0.000000,2.899230,0.000000,1.741901
LINE450,0.000000,1.759811,0.000000,2.844714,33.969719,1.246581
LINE451,0.000000,4.375927,0.000000,2.589454,0.000000,-1.331863
LINE452,193.074987,-0.820258,112.713532,3.305593,33.626143,1.247286
LINE453,0.000000,2.375107,0.000000,0.213007,0.000000,-1.445176
LINE454,0.000000,-0.171067,0.000000,0.930457,68.165120,1.246755
LINE455,266.973238,-0.828114,300.300512,3.314508,171.589508,1.244642
LINE456,0.000000,-0.548010,0.000000,2.920014,0.000000,1.678204
LINE457,0.000000,-0.653105,0.000000,-0.109166,33.969719,1.246581
LINE458,0.000000,4.396696,0.000000,1.947482,0.000000,-1.376159
LINE459,154.756036,-0.819367,112.713532,3.305593,33.626143,1.247286
LINE460,0.000000,0.314559,0.000000,3.422958,0.000000,4.572207
LINE461,38.319260,-0.823856,0.000000,0.720718,0.000000,1.582570
LINE462,0.000000,-0.181773,0.000000,0.952023,68.165120,1.246755
LINE463,266.973238,-0.828114,300.300512,3.314508,171.589508,1.244642
LINE464,0.000000,-0.587783,0.000000,3.109409,0.000000,1.609017
LINE465,0.000000,4.391826,0.000000,1.803526,0.000000,-1.417637
LINE466,154.756036,-0.819367,112.713532,3.305593,33.626143,1.247286
LINE467,0.000000,-0.201681,0.000000,-0.201681,0.000000,2.996186
LINE468,0.000000,-0.142881,0.000000,2.939912,0.000000,2.892047
LINE469,38.319260,-0.823856,0.000000,0.737886,0.000000,1.617171
LINE470,0.000000,-0.112922,0.000000,0.939295,68.165120,1.246755
LINE471,266.973238,-0.828114,300.300512,3.314508,171.589508,1.244642
LINE472,0.000000,-0.662397,0.000000,2.916475,0.000000,1.539318
LINE473,0.000000,4.324198,0.000000,1.980640,0.000000,-1.459907
LINE474,154.756036,-0.819367,112.713532,3.305593,33.626143,1.247286
LINE475,0.000000,1.724457,0.000000,4.453548,0.000000,0.520500
LINE476,38.319260,-0.823856,0.000000,0.763272,0.000000,1.573286
LINE477,0.000000,-0.156901,0.000000,0.938008,68.165120,1.246755
LINE478,266.973238,-0.828114,300.300512,3.314508,171.589508,1.244642
LINE479,0.000000,-0.818266,0.000000,2.792290,0.000000,1.498210
LINE480,0.000000,4.685043,0.000000,2.600072,0.000000,-0.124759
LINE481,77.476489,-0.818225,112.713532,3.305593,33.626143,1.247286
LINE482,0.000000,2.879308,0.000000,2.879308,0.000000,1.775254
LINE483,77.279648,-0.820511,0.000000,0.656173,0.000000,4.706018
LINE484,38.319260,-0.823856,0.000000,0.864787,0.000000,1.546954
LINE485,0.000000,-0.111828,0.000000,0.676322,68.165120,1.246755
LINE486,266.973238,-0.828114,300.300512,3.314508,171.589508,1.244642
LINE487,0.000000,-0.823129,0.000000,2.884968,0.000000,1.414552
LINE488,0.000000,-0.854459,0.000000,3.051373,0.000000,0.444379
LINE489,77.476489,-0.818225,112.713532,3.305593,33.626143,1.247286
LINE490,0.000000,-0.201681,0.000000,-0.201681,0.000000,2.996186
LINE491,38.635124,-0.820541,0.000000,0.627452,0.000000,4.702788
LINE492,38.644524,-0.820481,0.000000,0.999928,0.000000,-0.859555
LINE493,38.319260,-0.823856,0.000000,0.844467,0.000000,1.583736
LINE494,0.000000,0.110090,0.000000,0.231077,68.165120,1.246755
LINE495,266.973238,-0.828114,300.300512,3.314508,171.589508,1.244642
LINE496,0.000000,-1.020786,0.000000,2.919584,0.000000,1.456470
LINE497,0.000000,3.518540,0.000000,0.870147,0.000000,-1.553202
LINE498,77.476489,-0.818225,112.713532,3.305593,33.626143,1.247286
LINE499,0.000000,-0.201681,0.000000,3.002953,0.000000,3.349978
LINE500,38.635124,-0.820541,0.000000,0.572712,0.000000,4.700312
LINE501,38.644524,-0.820481,0.000000,-0.914653,0.000000,-1.478122
LINE502,38.319260,-0.823856,0.000000,0.691420,0.000000,1.580019
LINE503,0.000000,-0.577663,0.000000,0.511918,68.165120,1.246755
LINE504,266.973238,-0.828114,300.300512,3.314508,171.589508,1.244642
LINE505,0.000000,-1.045138,0.000000,2.921332,0.000000,1.441289
LINE506,0.000000,2.992017,0.000000,2.992017,0.000000,-0.075346
LINE507,77.476489,-0.818225,112.713532,3.305593,33.626143,1.247286
LINE508,0.000000,1.570887,0.000000,4.059639,0.000000,-0.723827
LINE509,38.635124,-0.820541,0.000000,0.349736,0.000000,4.709899
LINE510,38.319260,-0.823856,0.000000,0.706766,0.000000,1.585333
LINE511,0.000000,1.448512,0.000000,1.464417,68.165120,1.246755
LINE512,0.000000,2.436362,36.771070,3.314588,0.000000,1.528796
LINE513,266.973238,-0.828114,263.529443,3.314497,171.589508,1.244642
LINE514,0.000000,-1.526602,0.000000,2.789748,0.000000,1.316796
LINE515,0.000000,1.421058,112.713532,3.305593,33.626143,1.247286
LINE516,0.000000,2.939912,0.000000,2.939912,0.000000,-0.145406
LINE517,77.476489,-0.818225,0.000000,3.920476,0.000000,-1.475909
LINE518,38.635124,-0.820541,0.000000,0.814324,0.000000,-1.561872
LINE519,38.319260,-0.823856,0.000000,0.588810,0.000000,1.615308
LINE520,0.000000,2.137776,0.000000,0.361520,68.165120,1.246755
LINE521,0.000000,-0.681536,36.771070,3.314588,0.000000,1.451866
LINE522,266.973238,-0.828114,263.529443,3.314497,171.589508,1.244642
LINE523,0.000000,-1.477977,0.000000,2.845672,0.000000,1.404126
LINE524,0.000000,1.451351,112.713532,3.305593,33.626143,1.247286
LINE525,0.000000,-0.201681,0.000000,-0.201681,0.000000,2.996186
LINE526,77.476489,-0.818225,0.000000,3.515294,0.000000,-1.473485
LINE527,38.635124,-0.820541,0.000000,1.220898,0.000000,-1.556985
LINE528,38.319260,-0.823856,0.000000,0.547218,0.000000,1.652233
LINE529,0.000000,4.191814,0.000000,1.639334,68.165120,1.246755
LINE530,266.973238,-0.828114,263.529443,3.314497,171.589508,1.244642
LINE531,0.000000,4.101535,0.000000,3.252621,0.000000,1.186101
LINE532,0.000000,1.468339,112.713532,3.305593,33.626143,1.247286
LINE533,0.000000,2.939912,0.000000,-0.138471,0.000000,0.160875
LINE534,77.476489,-0.818225,0.000000,3.327025,0.000000,-1.476214
LINE535,38.635124,-0.820541,0.000000,0.288390,0.000000,-1.542160
LINE536,38.319260,-0.823856,0.000000,1.635633,0.000000,1.661835
LINE537,0.000000,0.149324,0.000000,3.447148,34.094591,1.246842
LINE538,0.000000,-0.376437,0.000000,0.829654,34.070529,1.246668
LINE539,266.973238,-0.828114,263.529443,3.314497,171.589508,1.244642
LINE540,0.000000,2.645426,0.000000,3.457488,0.000000,1.028362
LINE541,0.000000,1.416438,112.713532,3.305593,33.626143,1.247286
LINE542,0.000000,2.939912,0.000000,2.939912,0.000000,-0.145406
LINE543,77.476489,-0.818225,0.000000,3.529377,0.000000,-1.467276
LINE544,38.635124,-0.820541,0.000000,2.506681,0.000000,2.039806
LINE545,38.319260,-0.823856,0.000000,1.930506,0.000000,1.671946
LINE546,0.000000,-0.268107,0.000000,3.202448,34.094591,1.246842
LINE547,266.973238,-0.828114,263.529443,3.314497,171.589508,1.244642
LINE548,0.000000,4.626011,0.000000,2.574116,0.000000,1.028871
LINE549,0.000000,1.474235,112.713532,3.305593,33.626143,1.247286
LINE550,0.000000,4.495429,0.000000,4.495429,0.000000,1.032106
LINE551,38.737078,-0.818233,0.000000,3.824102,0.000000,-1.472045
LINE552,38.739411,-0.818218,0.000000,2.161743,0.000000,-0.451711
LINE553,38.635124,-0.820541,0.000000,2.484220,0.000000,1.609697
LINE554,38.319260,-0.823856,0.000000,2.156102,0.000000,1.641983
LINE555,0.000000,-1.417760,0.000000,-0.937007,34.094591,1.246842
LINE556,266.973238,-0.828114,263.529443,3.314497,171.589508,1.244642
LINE557,0.000000,2.498355,0.000000,0.590390,0.000000,1.271632
LINE558,0.000000,1.464492,112.713532,3.305593,33.626143,1.247286
LINE559,0.000000,2.939912,0.000000,2.939912,0.000000,-0.145406
LINE560,38.737078,-0.818233,0.000000,-0.169024,0.000000,-1.441253
LINE561,38.739411,-0.818218,0.000000,0.442972,0.000000,1.557424
LINE562,38.635124,-0.820541,0.000000,0.266579,0.000000,1.176692
LINE563,38.319260,-0.823856,0.000000,2.431714,0.000000,1.640308
LINE564,266.973238,-0.828114,263.529443,3.314497,171.589508,1.244642
LINE565,0.000000,2.908688,0.000000,2.908688,0.000000,0.910055
LINE566,0.000000,2.128308,37.547277,3.305672,33.626143,1.247286
LINE567,0.000000,3.919109,0.000000,1.625291,0.000000,-0.581422
LINE568,0.000000,0.757087,75.166255,3.305553,0.000000,4.539189
LINE569,38.737078,-0.818233,0.000000,3.614764,0.000000,-1.320672
LINE570,38.319260,-0.823856,0.000000,1.235954,0.000000,4.634133
LINE571,266.973238,-0.828114,263.529443,3.314497,171.589508,1.244642
LINE572,0.000000,2.244704,37.547277,3.305672,33.626143,1.247286
LINE573,0.000000,4.417232,0.000000,1.453933,0.000000,-1.470276
LINE574,0.000000,0.777750,75.166255,3.305553,0.000000,4.579423
LINE575,38.737078,-0.818233,0.000000,-0.887723,0.000000,1.657384
LINE576,38.319260,-0.823856,0.000000,2.298229,0.000000,4.653753
LINE577,266.973238,-0.828114,263.529443,3.314497,171.589508,1.244642
LINE578,0.000000,2.587652,37.547277,3.305672,33.626143,1.247286
LINE579,0.000000,2.939912,0.000000,2.939912,0.000000,-0.145406
LINE580,0.000000,2.227619,0.000000,3.309455,0.000000,4.433129
LINE581,0.000000,0.771716,75.166255,3.305553,0.000000,4.565789
LINE582,38.737078,-0.818233,0.000000,0.702072,0.000000,1.622011
LINE583,38.319260,-0.823856,0.000000,2.339457,0.000000,1.388117
LINE584,0.000000,0.415830,36.853249,3.314715,0.000000,4.671393
LINE585,266.973238,-0.828114,226.676195,3.314461,171.589508,1.244642
LINE586,0.000000,2.762586,37.547277,3.305672,33.626143,1.247286
LINE587,0.000000,1.617302,0.000000,1.617302,0.000000,-1.187661
LINE588,0.000000,1.963224,0.000000,3.360517,0.000000,4.477152
LINE589,0.000000,0.950270,75.166255,3.305553,0.000000,4.564092
LINE590,38.737078,-0.818233,0.000000,3.359200,0.000000,4.403246
LINE591,38.319260,-0.823856,0.000000,2.028298,0.000000,1.529846
LINE592,0.000000,0.401409,36.853249,3.314715,0.000000,4.659915
LINE593,266.973238,-0.828114,226.676195,3.314461,171.589508,1.244642
LINE594,0.000000,0.313286,37.547277,3.305672,0.000000,2.337644
LINE595,0.000000,3.679096,0.000000,0.053342,33.626143,1.247286
LINE596,0.000000,2.124684,0.000000,3.466023,0.000000,4.409521
LINE597,0.000000,0.918547,75.166255,3.305553,0.000000,4.549168
LINE598,38.737078,-0.818233,0.000000,3.187024,0.000000,1.556249
LINE599,38.319260,-0.823856,0.000000,3.010882,0.000000,1.488339
LINE600,0.000000,0.346850,36.853249,3.314715,0.000000,4.658574
LINE601,0.000000,3.076257,0.000000,-0.988397,34.143943,1.245025
LINE602,266.973238,-0.828114,226.676195,3.314461,137.445568,1.244547
LINE603,0.000000,1.454138,37.547277,3.305672,0.000000,3.743333
LINE604,0.000000,4.548740,0.000000,4.548740,0.000000,1.509080
LINE605,0.000000,2.939912,0.000000,2.939912,0.000000,-0.145406
LINE606,0.000000,3.439348,0.000000,3.535970,33.626143,1.247286
LINE607,0.000000,-0.075248,0.000000,2.992017,0.000000,-0.062284
LINE608,0.000000,1.778331,0.000000,3.644589,0.000000,4.341943
LINE609,0.000000,0.897320,75.166255,3.305553,0.000000,4.536436
LINE610,38.737078,-0.818233,0.000000,3.524476,0.000000,1.413134
LINE611,38.319260,-0.823856,0.000000,2.768505,0.000000,-1.372024
LINE612,0.000000,0.264512,36.853249,3.314715,0.000000,4.600825
LINE613,0.000000,1.222175,0.000000,1.222175,34.143943,1.245025
LINE614,266.973238,-0.828114,226.676195,3.314461,137.445568,1.244547
LINE615,0.000000,-0.531166,37.547277,3.305672,0.000000,-1.513960
LINE616,0.000000,2.939912,0.000000,2.939912,0.000000,-0.145406
LINE617,0.000000,-0.201681,0.000000,-0.201681,0.000000,2.996186
LINE618,0.000000,1.431869,0.000000,1.431869,33.626143,1.247286
LINE619,0.000000,1.515956,0.000000,3.761641,0.000000,4.331387
LINE620,0.000000,0.906575,75.166255,3.305553,0.000000,4.534609
LINE621,38.319260,-0.823856,0.000000,0.413692,0.000000,-1.543970
LINE622,0.000000,0.425062,36.853249,3.314715,0.000000,4.552123
LINE623,0.000000,1.326209,37.014796,3.313591,0.000000,4.625107
LINE624,266.973238,-0.828114,189.661416,3.314631,137.445568,1.244547
LINE625,0.000000,-0.479929,37.547277,3.305672,0.000000,-1.415514
LINE626,0.000000,1.658949,0.000000,3.999340,0.000000,4.456836
LINE627,0.000000,0.989842,75.166255,3.305553,0.000000,4.501431
LINE628,38.319260,-0.823856,0.000000,-1.195969,0.000000,1.811700
LINE629,0.000000,0.374356,36.853249,3.314715,0.000000,4.635696
LINE630,0.000000,1.676567,37.014796,3.313591,0.000000,4.606737
LINE631,266.973238,-0.828114,189.661416,3.314631,137.445568,1.244547
LINE632,0.000000,-0.531166,37.547277,3.305672,0.000000,-0.067519
LINE633,0.000000,1.555482,0.000000,3.550801,0.000000,4.556674
LINE634,0.000000,0.971305,75.166255,3.305553,0.000000,4.577324
LINE635,0.000000,0.296848,36.853249,3.314715,0.000000,4.658840
LINE636,0.000000,0.713151,37.014796,3.313591,0.000000,4.707797
LINE637,266.973238,-0.828114,189.661416,3.314631,137.445568,1.244547
LINE638,0.000000,0.000000,37.547277,3.305672,0.000000,3.074074
LINE639,0.000000,1.617546,0.000000,3.897777,0.000000,4.170753
LINE640,0.000000,0.956365,75.166255,3.305553,0.000000,4.567704
LINE641,0.000000,0.261426,36.853249,3.314715,0.000000,4.664148
LINE642,0.000000,0.154018,37.014796,3.313591,0.000000,4.633546
LINE643,266.973238,-0.828114,189.661416,3.314631,137.445568,1.244547
LINE644,0.000000,2.869640,0.000000,3.614499,0.000000,4.491527
LINE645,0.000000,0.966439,75.166255,3.305553,0.000000,4.537439
LINE646,0.000000,0.287790,36.853249,3.314715,0.000000,4.659374
LINE647,0.000000,0.016649,37.014796,3.313591,0.000000,4.606636
LINE648,266.973238,-0.828114,189.661416,3.314631,137.445568,1.244547
LINE649,0.000000,2.917274,0.000000,0.541883,0.000000,-1.486533
LINE650,0.000000,1.022582,75.166255,3.305553,0.000000,4.606305
LINE651,0.000000,0.283599,36.853249,3.314715,0.000000,4.686639
LINE652,0.000000,0.304744,37.014796,3.313591,0.000000,4.623186
LINE653,266.973238,-0.828114,189.661416,3.314631,137.445568,1.244547
LINE654,0.000000,3.295156,0.000000,-0.066231,0.000000,4.639835
LINE655,0.000000,1.494229,37.585722,3.305570,0.000000,3.233521
LINE656,0.000000,-0.893008,37.580533,3.305536,0.000000,1.551734
LINE657,0.000000,0.306050,36.853249,3.314715,0.000000,4.584664
LINE658,0.000000,0.014574,37.014796,3.313591,0.000000,4.616534
LINE659,266.973238,-0.828114,189.661416,3.314631,137.445568,1.244547
LINE660,0.000000,3.754604,0.000000,3.754604,0.000000,-1.569376
LINE661,0.000000,1.847692,37.585722,3.305570,0.000000,4.484281
LINE662,0.000000,-0.312447,37.580533,3.305536,0.000000,4.649010
LINE663,0.000000,0.306065,36.853249,3.314715,0.000000,4.557717
LINE664,0.000000,2.851404,37.014796,3.313591,0.000000,4.682556
LINE665,266.973238,-0.828114,189.661416,3.314631,137.445568,1.244547
LINE666,0.000000,3.067928,0.000000,-0.186149,0.000000,4.342106
LINE667,0.000000,2.688356,37.585722,3.305570,0.000000,4.503605
LINE668,0.000000,-0.230684,37.580533,3.305536,0.000000,4.464279
LINE669,0.000000,0.279676,36.853249,3.314715,0.000000,4.356496
LINE670,0.000000,-1.195758,37.014796,3.313591,0.000000,-1.521014
LINE671,113.995104,-0.831002,0.000000,-0.447102,0.000000,4.660728
LINE672,152.978964,-0.825962,189.661416,3.314631,137.445568,1.244547
LINE673,0.000000,1.879290,0.000000,4.447003,0.000000,-1.179611
LINE674,0.000000,-0.722382,37.585722,3.305570,0.000000,1.549147
LINE675,0.000000,3.915392,37.580533,3.305536,0.000000,4.617924
LINE676,0.000000,0.312035,36.853249,3.314715,0.000000,1.809044
LINE677,0.000000,-0.917093,37.014796,3.313591,0.000000,-1.498800
LINE678,113.995104,-0.831002,0.000000,-0.419986,0.000000,4.645595
LINE679,152.978964,-0.825962,189.661416,3.314631,137.445568,1.244547
LINE680,0.000000,2.939912,0.000000,2.939912,0.000000,-0.145406
LINE681,0.000000,-0.942946,37.585722,3.305570,0.000000,4.610214
LINE682,0.000000,0.389156,36.853249,3.314715,0.000000,4.619447
LINE683,0.000000,-0.317560,37.014796,3.313591,0.000000,1.709850
LINE684,113.995104,-0.831002,0.000000,-0.563364,0.000000,4.655115
LINE685,152.978964,-0.825962,189.661416,3.314631,137.445568,1.244547
LINE686,0.000000,0.501476,36.853249,3.314715,0.000000,4.661389
LINE687,0.000000,2.749844,37.014796,3.313591,0.000000,1.528318
LINE688,113.995104,-0.831002,0.000000,-0.495434,0.000000,4.650639
LINE689,0.000000,2.274011,0.000000,3.093044,68.548764,1.245381
LINE690,152.978964,-0.825962,189.661416,3.314631,68.896852,1.243718
LINE691,0.000000,0.461056,36.853249,3.314715,0.000000,4.647395
LINE692,113.995104,-0.831002,0.000000,-0.411402,0.000000,4.652644
LINE693,0.000000,2.571647,0.000000,3.086259,34.276995,1.245400
LINE694,0.000000,-0.206996,0.000000,3.577374,34.271769,1.245362
LINE695,0.000000,-0.468807,37.294760,3.313242,0.000000,1.509158
LINE696,152.978964,-0.825962,152.366700,3.314971,68.896852,1.243718
LINE697,0.000000,0.596575,36.853249,3.314715,0.000000,4.655113
LINE698,113.995104,-0.831002,0.000000,-0.309367,0.000000,4.645369
LINE699,0.000000,2.784867,0.000000,3.067608,34.276995,1.245400
LINE700,0.000000,1.015772,0.000000,0.238902,34.271769,1.245362
LINE701,0.000000,-0.584062,37.294760,3.313242,0.000000,1.556981
LINE702,152.978964,-0.825962,152.366700,3.314971,68.896852,1.243718
LINE703,0.000000,0.607047,36.853249,3.314715,0.000000,4.635064
LINE704,113.995104,-0.831002,0.000000,-0.204080,0.000000,4.657776
LINE705,0.000000,3.168649,0.000000,3.134718,34.276995,1.245400
LINE706,152.978964,-0.825962,152.366700,3.314971,68.896852,1.243718
LINE707,0.000000,2.301642,0.000000,0.947972,0.000000,-1.110414
LINE708,0.000000,0.607159,36.853249,3.314715,0.000000,4.632760
LINE709,113.995104,-0.831002,0.000000,-0.198562,0.000000,4.652823
LINE710,0.000000,-0.982550,0.000000,3.131125,34.276995,1.245400
LINE711,76.776770,-0.823308,152.366700,3.314971,68.896852,1.243718
LINE712,76.202737,-0.828636,0.000000,-0.111123,0.000000,4.622961
LINE713,0.000000,2.277323,0.000000,0.944659,0.000000,-0.999204
LINE714,0.000000,0.526630,36.853249,3.314715,0.000000,4.552810
LINE715,113.995104,-0.831002,0.000000,-0.201540,0.000000,4.651356
LINE716,0.000000,3.552012,0.000000,3.062418,34.276995,1.245400
LINE717,76.776770,-0.823308,152.366700,3.314971,68.896852,1.243718
LINE718,76.202737,-0.828636,0.000000,-0.104196,0.000000,4.631019
LINE719,0.000000,2.140748,0.000000,1.056684,0.000000,-1.136858
LINE720,0.000000,0.591102,36.853249,3.314715,0.000000,4.488073
LINE721,113.995104,-0.831002,0.000000,-0.216935,0.000000,4.652197
LINE722,0.000000,3.418992,0.000000,2.233108,34.276995,1.245400
LINE723,76.776770,-0.823308,76.688744,3.315116,68.896852,1.243718
LINE724,0.000000,-0.162876,75.677958,3.314823,0.000000,1.542512
LINE725,76.202737,-0.828636,0.000000,-0.171488,0.000000,4.632701
LINE726,0.000000,2.278309,0.000000,0.817982,0.000000,-1.221074
LINE727,0.000000,1.075660,36.853249,3.314715,0.000000,-1.568716
LINE728,113.995104,-0.831002,0.000000,-0.181896,0.000000,4.643225
LINE729,0.000000,2.946256,0.000000,2.490969,34.276995,1.245400
LINE730,76.776770,-0.823308,76.688744,3.315116,68.896852,1.243718
LINE731,0.000000,-0.158834,75.677958,3.314823,0.000000,1.541907
LINE732,76.202737,-0.828636,0.000000,-0.262190,0.000000,3.915165
LINE733,0.000000,2.405576,0.000000,1.115736,0.000000,-1.309236
LINE734,0.000000,0.825614,36.853249,3.314715,0.000000,4.687232
LINE735,113.995104,-0.831002,0.000000,-0.125722,0.000000,4.641110
LINE736,0.000000,2.792709,0.000000,1.357015,34.276995,1.245400
LINE737,76.776770,-0.823308,76.688744,3.315116,68.896852,1.243718
LINE738,0.000000,-0.184188,75.677958,3.314823,0.000000,1.538640
LINE739,76.202737,-0.828636,0.000000,-0.219190,0.000000,2.826865
LINE740,0.000000,2.458573,0.000000,1.127379,0.000000,-1.339785
LINE741,0.000000,1.163361,36.853249,3.314715,0.000000,4.678529
LINE742,113.995104,-0.831002,0.000000,-0.164297,0.000000,4.632214
LINE743,0.000000,3.551196,0.000000,-0.246475,34.276995,1.245400
LINE744,76.776770,-0.823308,76.688744,3.315116,68.896852,1.243718
LINE745,0.000000,1.835566,37.842968,3.314849,0.000000,1.242613
LINE746,0.000000,-0.233424,37.834990,3.314797,0.000000,1.536835
LINE747,76.202737,-0.828636,0.000000,-0.406103,0.000000,4.522555
LINE748,0.000000,2.470255,0.000000,1.421443,0.000000,-1.343123
LINE749,0.000000,1.588155,36.853249,3.314715,0.000000,4.667976
LINE750,113.995104,-0.831002,0.000000,-0.187974,0.000000,4.622703
LINE751,0.000000,-1.260485,0.000000,-0.628785,34.276995,1.245400
LINE752,76.776770,-0.823308,76.688744,3.315116,0.000000,-1.568423
LINE753,0.000000,-0.286406,0.000000,3.521124,68.896852,1.243718
LINE754,0.000000,3.283713,37.842968,3.314849,0.000000,-1.097384
LINE755,0.000000,-0.271403,37.834990,3.314797,0.000000,1.511068
LINE756,76.202737,-0.828636,0.000000,-0.288986,0.000000,4.216296
LINE757,0.000000,2.232567,0.000000,1.091533,0.000000,-1.511602
LINE758,0.000000,2.662248,36.853249,3.314715,0.000000,-1.551533
LINE759,113.995104,-0.831002,0.000000,-0.171005,0.000000,4.630593
LINE760,0.000000,1.728347,0.000000,0.353572,34.276995,1.245400
LINE761,76.776770,-0.823308,76.688744,3.315116,0.000000,4.710045
LINE762,0.000000,-0.287696,0.000000,3.523027,68.896852,1.243718
LINE763,0.000000,-0.096345,37.834990,3.314797,0.000000,1.512498
LINE764,76.202737,-0.828636,0.000000,-0.362191,0.000000,1.755769
LINE765,0.000000,2.542081,0.000000,0.841798,0.000000,-1.531635
LINE766,0.000000,2.875706,36.853249,3.314715,0.000000,-1.566383
LINE767,113.995104,-0.831002,0.000000,-0.164602,0.000000,4.610176
LINE768,0.000000,0.155126,0.000000,3.129221,34.276995,1.245400
LINE769,76.776770,-0.823308,76.688744,3.315116,0.000000,4.693560
LINE770,0.000000,-0.279537,0.000000,3.258355,34.452758,1.243749
LINE771,0.000000,-0.338850,0.000000,3.421093,34.444094,1.243687
LINE772,0.000000,0.478069,37.834990,3.314797,0.000000,0.858532
LINE773,76.202737,-0.828636,0.000000,-0.420641,0.000000,1.766638
LINE774,0.000000,2.502824,0.000000,0.557916,0.000000,-1.554915
LINE775,0.000000,0.542733,36.853249,3.314715,0.000000,4.697840
LINE776,113.995104,-0.831002,0.000000,-0.267515,0.000000,4.614991
LINE777,0.000000,-0.918994,0.000000,-0.064302,34.276995,1.245400
LINE778,76.776770,-0.823308,76.688744,3.315116,0.000000,4.684679
LINE779,0.000000,0.586764,0.000000,0.586764,34.452758,1.243749
LINE780,0.000000,-0.384806,0.000000,3.541368,34.444094,1.243687
LINE781,0.000000,0.745155,37.834990,3.314797,0.000000,-0.890016
LINE782,76.202737,-0.828636,0.000000,-0.452453,0.000000,1.740451
LINE783,0.000000,2.682416,0.000000,0.462930,0.000000,-1.570579
LINE784,0.000000,2.625285,36.853249,3.314715,0.000000,1.558336
LINE785,113.995104,-0.831002,0.000000,-0.249997,0.000000,4.610864
LINE786,76.776770,-0.823308,76.688744,3.315116,0.000000,4.682395
LINE787,0.000000,-0.326736,0.000000,3.790334,34.444094,1.243687
LINE788,0.000000,-0.476614,37.834990,3.314797,0.000000,1.437703
LINE789,76.202737,-0.828636,0.000000,-0.416388,0.000000,1.703850
LINE790,0.000000,2.140570,0.000000,3.797911,0.000000,-1.520138
LINE791,75.996601,-0.831003,0.000000,-0.349323,0.000000,4.538531
LINE792,37.998503,-0.831002,0.000000,-0.212775,0.000000,4.659564
LINE793,76.776770,-0.823308,76.688744,3.315116,0.000000,4.675209
LINE794,0.000000,-0.260550,0.000000,4.259930,34.444094,1.243687
LINE795,0.000000,2.280000,37.834990,3.314797,0.000000,1.427695
LINE796,76.202737,-0.828636,0.000000,-0.435216,0.000000,2.256143
LINE797,0.000000,2.618586,0.000000,0.545466,0.000000,4.526031
LINE798,75.996601,-0.831003,0.000000,-0.468927,0.000000,4.496277
LINE799,37.998503,-0.831002,0.000000,-1.106324,0.000000,4.584081
LINE800,76.776770,-0.823308,0.000000,3.545389,0.000000,-1.507011
LINE801,0.000000,3.316949,76.688744,3.315116,0.000000,2.729371
LINE802,0.000000,-0.183733,0.000000,3.647259,34.444094,1.243687
LINE803,0.000000,3.484426,37.834990,3.314797,0.000000,-1.449839
LINE804,76.202737,-0.828636,0.000000,-0.441730,0.000000,1.727865
LINE805,0.000000,2.841974,0.000000,0.450574,0.000000,-1.317086
LINE806,75.996601,-0.831003,0.000000,-0.401682,0.000000,4.503749
LINE807,37.998503,-0.831002,0.000000,0.132495,0.000000,4.660641
LINE808,76.776770,-0.823308,0.000000,3.082979,0.000000,-1.512525
LINE809,0.000000,3.443902,76.688744,3.315116,0.000000,2.790955
LINE810,0.000000,2.939912,0.000000,2.939912,0.000000,-0.145406
LINE811,0.000000,0.115417,0.000000,-0.072233,34.444094,1.243687
LINE812,0.000000,-0.210245,37.834990,3.314797,0.000000,-1.463988
LINE813,76.202737,-0.828636,0.000000,-0.350468,0.000000,2.552043
LINE814,0.000000,3.617287,0.000000,-0.260117,0.000000,1.199783
LINE815,75.996601,-0.831003,0.000000,-0.524026,0.000000,4.572025
LINE816,37.998503,-0.831002,0.000000,2.899096,0.000000,2.025230
LINE817,76.776770,-0.823308,0.000000,3.172388,0.000000,-1.507805
LINE818,0.000000,3.277561,76.688744,3.315116,0.000000,2.641334
LINE819,0.000000,2.294472,0.000000,-0.589792,0.000000,3.639150
LINE820,0.000000,2.252722,0.000000,-0.187816,34.444094,1.243687
LINE821,76.202737,-0.828636,0.000000,-0.365415,0.000000,2.367869
LINE822,0.000000,3.625677,0.000000,0.486257,0.000000,2.823709
LINE823,75.996601,-0.831003,0.000000,-1.242553,0.000000,4.431570
LINE824,76.776770,-0.823308,0.000000,2.831717,0.000000,-1.531802
LINE825,0.000000,3.347056,76.688744,3.315116,0.000000,2.613771
LINE826,0.000000,4.483384,0.000000,4.483384,0.000000,-1.140433
LINE827,0.000000,-0.572310,0.000000,2.158730,34.444094,1.243687
LINE828,76.202737,-0.828636,0.000000,-0.269066,0.000000,2.420135
LINE829,0.000000,3.041007,0.000000,3.041007,0.000000,-0.360981
LINE830,75.996601,-0.831003,0.000000,-0.658109,0.000000,1.949853
LINE831,76.776770,-0.823308,0.000000,2.566850,0.000000,-1.540061
LINE832,0.000000,3.237768,76.688744,3.315116,0.000000,3.392301
LINE833,0.000000,0.000000,0.000000,0.000000,0.000000,0.000000
LINE834,0.000000,0.903092,0.000000,0.262261,34.444094,1.243687
LINE835,76.202737,-0.828636,0.000000,-0.336925,0.000000,2.643248
LINE836,75.996601,-0.831003,0.000000,4.627623,0.000000,1.843942
LINE837,76.776770,-0.823308,0.000000,0.776954,0.000000,-1.567790
LINE838,0.000000,2.877581,76.688744,3.315116,0.000000,3.403227
LINE839,0.000000,4.515151,0.000000,1.518073,0.000000,1.347423
LINE840,76.202737,-0.828636,0.000000,-0.354255,0.000000,2.243100
LINE841,75.996601,-0.831003,0.000000,1.042777,0.000000,1.858038
LINE842,76.776770,-0.823308,0.000000,0.551056,0.000000,-1.567487
LINE843,0.000000,3.259422,76.688744,3.315116,0.000000,1.679359
LINE844,0.000000,2.964344,0.000000,-0.001541,0.000000,4.211400
LINE845,0.000000,0.000000,0.000000,0.000000,0.000000,0.000000
LINE846,76.202737,-0.828636,0.000000,-0.360809,0.000000,2.949300
LINE847,75.996601,-0.831003,0.000000,3.615612,0.000000,1.602482
LINE848,76.776770,-0.823308,0.000000,0.420277,0.000000,4.705003
LINE849,0.000000,3.074074,76.688744,3.315116,0.000000,1.669693
LINE850,0.000000,2.813910,0.000000,0.078875,0.000000,4.117172
LINE851,0.000000,3.612553,0.000000,-0.523986,0.000000,0.810056
LINE852,76.202737,-0.828636,0.000000,-0.391019,0.000000,4.409075
LINE853,75.996601,-0.831003,0.000000,3.499503,0.000000,1.675089
LINE854,76.776770,-0.823308,0.000000,0.464299,0.000000,4.710699
LINE855,0.000000,3.184731,76.688744,3.315116,0.000000,1.683131
LINE856,0.000000,2.404802,0.000000,0.324264,0.000000,4.056687
LINE857,0.000000,-1.358741,0.000000,3.194416,0.000000,0.828043
LINE858,76.202737,-0.828636,0.000000,-0.432896,0.000000,4.638789
LINE859,37.979766,-0.831123,0.000000,4.089400,0.000000,0.679734
LINE860,38.016836,-0.830882,0.000000,1.415002,0.000000,1.521672
LINE861,76.776770,-0.823308,0.000000,0.500520,0.000000,4.711562
LINE862,0.000000,3.107395,76.688744,3.315116,0.000000,1.686302
LINE863,0.000000,1.397775,0.000000,4.650694,0.000000,3.073612
LINE864,0.000000,4.081147,0.000000,3.503728,0.000000,-1.447266
LINE865,76.202737,-0.828636,0.000000,-0.395554,0.000000,4.696798
LINE866,76.776770,-0.823308,0.000000,0.466527,0.000000,4.711814
LINE867,0.000000,3.859472,76.688744,3.315116,0.000000,1.681068
LINE868,0.000000,0.826198,0.000000,3.958304,0.000000,2.593683
LINE869,0.000000,3.573545,0.000000,3.573545,0.000000,1.473176
LINE870,76.202737,-0.828636,0.000000,-0.299442,0.000000,-1.486760
LINE871,76.776770,-0.823308,0.000000,0.482944,0.000000,4.707834
LINE872,0.000000,4.056868,38.352370,3.315170,0.000000,4.414651
LINE873,0.000000,-0.067519,38.336374,3.315063,0.000000,-0.067519
LINE874,0.000000,1.016497,0.000000,0.023558,0.000000,1.694738
LINE875,0.000000,0.561123,0.000000,0.561123,0.000000,-1.156402
LINE876,76.202737,-0.828636,0.000000,-0.363677,0.000000,-1.418374
LINE877,76.776770,-0.823308,0.000000,0.475357,0.000000,4.708316
LINE878,0.000000,3.537722,38.352370,3.315170,0.000000,1.718635
LINE879,0.000000,-0.067519,38.336374,3.315063,0.000000,1.550118
LINE880,0.000000,-1.014254,0.000000,0.219011,0.000000,-1.296512
LINE881,0.000000,-0.363799,0.000000,2.189675,0.000000,-1.355776
LINE882,76.202737,-0.828636,0.000000,-0.364460,0.000000,-1.414915
LINE883,76.776770,-0.823308,0.000000,0.473363,0.000000,4.708721
LINE884,0.000000,3.319053,38.352370,3.315170,0.000000,4.551394
LINE885,0.000000,0.000000,38.336374,3.315063,0.000000,0.000000
LINE886,76.202737,-0.828636,0.000000,-1.020786,0.000000,-1.542346
LINE887,38.390984,-0.823262,0.000000,0.297387,0.000000,4.690783
LINE888,38.385785,-0.823354,0.000000,3.417335,0.000000,1.237494
LINE889,0.000000,3.537722,38.352370,3.315170,0.000000,3.074074
LINE890,76.202737,-0.828636,0.000000,4.027408,0.000000,1.603730
LINE891,38.390984,-0.823262,0.000000,0.151874,0.000000,4.693368
LINE892,38.385785,-0.823354,0.000000,3.348453,0.000000,1.522376
LINE893,0.000000,3.074074,38.352370,3.315170,0.000000,-0.067519
LINE894,38.127019,-0.828470,0.000000,3.305630,0.000000,1.648392
LINE895,38.075719,-0.828802,0.000000,0.694742,0.000000,1.525995
LINE896,38.390984,-0.823262,0.000000,0.264349,0.000000,4.700413
LINE897,38.385785,-0.823354,0.000000,3.233301,0.000000,0.965298
LINE898,0.000000,0.000000,38.352370,3.315170,0.000000,0.000000
LINE899,38.127019,-0.828470,0.000000,1.065344,0.000000,1.474438
LINE900,38.390984,-0.823262,0.000000,0.218080,0.000000,4.686817
LINE901,38.390984,-0.823262,0.000000,-0.248283,0.000000,1.337497
LINE902,38.390984,-0.823262,0.000000,3.810431,0.000000,1.503037
LINE903,38.390984,-0.823262,0.000000,3.711227,0.000000,1.507431
LINE904,38.390984,-0.823262,0.000000,3.321858,0.000000,1.553229
LINE905,38.390984,-0.823262,0.000000,2.712418,0.000000,1.431758
